src/test/resources/bpafiles/anhui/sdxx201307081415.dat
.2013-07-08 14:15:00&&2013-07-08 14:15:00
.sdload   19929.14  20374.90  0.00      0.00      
(POWERFLOW,CASEID=2011,PROJECT=安徽电网潮流)
./OLD_BASE,FILE=hd2009-wd.bse\
/SOL_ITER,DECOUPLED=2,NEWTON=15,OPITM=0\
./TOLERANCE,BUSV=0.0050,AIPOWER=0.0010,TX=0.0010,Q=0.0050,OPCUT=1.0E-4\
./P_INPUT_LIST,ZONES=ALL\
/P_OUTPUT_LIST,ZONES=ALL,FAILED_SOL=FULL_LIST\
/RPT_SORT=ZONE\
/P_ANALYSIS_RPT,LEVEL=4\
/NETWORK_DATA\
.【安徽电网】
.@AhstartAHAHAHAHAHAHAHAHAHAHAHAHAHAHAHAHAHAHAHAHAHAHAHAHAHAHAHAHAHAHAHAHAHAHAHA
.AHAHAHAHAHAHAHAHAHAHAHAHAHAHAHAHAHAHAHAHAHAHAHAHAHAHAHAHAHAHAHAHAHAHAHAHAHAHAHA
.AHAHAHAHAHAHAHAHAHAHAHAHAHAHAHAHAHAHAHAHAHAHAHAHAHAHAHAHAHAHAHAHAHAHAHAHAHAHAHA
.***********************安徽BPA潮流数据开始*************************************
.AHAHAHAHAHAHAHAHAHAHAHAHAHAHAHAHAHAHAHAHAHAHAHAHAHAHAHAHAHAHAHAHAHAHAHAHAHAHAHA
.AHAHAHAHAHAHAHAHAHAHAHAHAHAHAHAHAHAHAHAHAHAHAHAHAHAHAHAHAHAHAHAHAHAHAHAHAHAHAHA
.AHAHAHAHAHAHAHAHAHAHAHAHAHAHAHAHAHAHAHAHAHAHAHAHAHAHAHAHAHAHAHAHAHAHAHAHAHAHAHA
.*******************************************************************************
.
.===============================安徽境内华东网调管辖机组========================
BQ    皖洛河_620.0HD30.6214.39        630.565.5300.040.00.980.960                                   
BQ    皖洛河_520.0HD35.8116.83        630.550.8160.040.00.980.960                                   
.-------------------------------------------------------------------------
BQ    华袁庄_120.0HD28.4513.37        630.581.6160.0.0000.980.960                                   
BQ    华袁庄_220.0HD29.5413.88        630.582.7160.0.0000.980.960                                   
.-------------------------------------------------------------------------
.BQ    华琅琊G010.5HD                  600.     10.00-40.0.980.960                                   
.-------------------------------------------------------------------------
BQ    华琅琊_115.7HD                  160.149.710.00-10.0.980.960                                   
.BQ    华琅琊_215.7HD                  160.     10.00-10.0.980.960                                   
.BQ    华琅琊_315.7HD                  160.     10.00-10.0.980.960                                   
.BQ    华琅琊_415.7HD                  160.     10.00-10.0.980.960                                   
.-------------------------------------------------------------------------
BQ    华宿州_120.0HD32.3215.19        630.402.6315.050.00.980.960                                   
BQ    华宿州_220.0HD31.8714.98        630.584.3315.050.00.980.960                                   
.-------------------------------------------------------------------------
BQ    华凤台_120.0HD29.5413.88        630.583.2160.050.00.980.960                                   
BQ    华凤台_220.0HD36.5417.17        630.590.2160.050.00.980.960                                   
.BQ    华凤台_320.0HD                  630.     160.0.0000.980.960                                   
.BQ    华凤台_420.0HD                  630.     160.0.0000.980.960                                   
.-------------------------------------------------------------------------
BQ    华龙子_120.0HD31.2014.66        630.589.7300.050.00.980.960                                   
BQ    华龙子_220.0HD35.0116.45        630.588.7300.050.00.980.960                                   
.-------------------------------------------------------------------------
.
.*******************************************************************************
.*******************************************************************************
.===============================安徽统调机组====================================
.*******************************************************************************
.*******************************************************************************
BQ    皖淮二_220.0CN23.2610.93        320.315.9160.0.0000.980.960                                   
BQ    皖淮二_120.0CN8.2893.896        320.319.7160.0.0000.980.960                                   
.-------------------------------------------------------------------------
.BQ    皖淮北_110.5CN                  50.0     25.00.0000.980.960                                   
.BQ    皖淮北_210.5CN                  50.0     25.00.0000.980.960                                   
.-------------------------------------------------------------------------
.BQ    皖淮北_313.8CN                  138.100.080.00.0000.980.960                                   
.BQ    皖淮北_413.8CN                  138.100.080.00.0000.980.960                                   
.-------------------------------------------------------------------------
.BQ    皖淮北_515.7CN                  200.     110.0.0000.980.960                                   
.BQ    皖淮北_615.7CN                  200.     110.0.0000.980.960                                   
.BQ    皖淮北_715.7CN                  200.     110.0.0000.980.960                                   
.BQ    皖淮北_815.7CN.0000.0000        210.     110.010.00.980.960                                   
.-------------------------------------------------------------------------
.BQ    皖虎山_220.0HB.0000.0000        660.     250.0.0000.980.960                                   
.BQ    皖虎山_120.0HB.0000.0000        660.     250.0.0000.980.960                                   
.-------------------------------------------------------------------------
.BQ    皖临涣_420.0HB.0000.0000        300.     160.0.0000.980.960                                   
BQ    皖临涣_220.0CN24.3611.45        300.299.0160.0.0000.980.960                                   
BQ    皖临涣_120.0CN24.2211.38        320.278.9160.0.0000.980.960                                   
.BQ    皖临涣_320.0HB.0000.0000        340.     160.0.0000.980.960                                   
.-------------------------------------------------------------------------
BQ    皖汇源_520.0CN10.394.884        350.269.575.00.0000.980.960                                   
BQ    皖汇源_620.0CN15.407.239        350.279.775.00.0000.980.960                                   
.-------------------------------------------------------------------------
BQ    皖汇源_413.8CN12.505.877        138.95.0575.00.0000.980.960                                   
.BQ    皖汇源_313.8CN                  135.     75.00.0000.980.960                                   
.-------------------------------------------------------------------------
BQ    皖阜润_222.0CN32.5615.30        640.597.3300.0.0000.980.960                                   
BQ    皖阜润_122.0CN32.8515.44        640.600.3300.050.00.980.960                                   
.-------------------------------------------------------------------------
.BQ    皖蚌热_110.5CN                  25.024.0020.00.0000.980.960                                   
.BQ    皖蚌热_210.5CN                  25.020.7020.00.0000.980.960                                   
.BQ    皖蚌热_310.5CN                  30.025.3020.00.0000.980.960                                   
.-------------------------------------------------------------------------
.BQ    皖蚌热G0115.CN                  75.070.0075.00.0000.980.960                                   
.-------------------------------------------------------------------------
.BQ    皖丰原G0115.CN                  30.058.4818.00.0000.980.960                                   
.-------------------------------------------------------------------------
.BQ    皖丰原_16.30CN                  25.011.6318.00.0000.980.960                                   
.BQ    皖丰原_66.30CN                  25.046.8518.00.0000.980.960                                   
.BQ    皖丰原_26.30CN                  25.0     18.00.0000.980.960                                   
.BQ    皖丰原_36.30CN                  25.0     18.00.0000.980.960                                   
.BQ    皖丰原_56.30CN                  25.021.6018.00.0000.980.960                                   
.BQ    皖丰原_46.30CN                  25.0     18.00.0000.980.960                                   
.-------------------------------------------------------------------------
BQ    皖曹店G037.0BB                  22.57.95122.50.0000.980.960                                   
BQ    皖曹店G137.0BB                  27.08.51627.00.0000.980.960                                   
BQ    皖曹店G237.0BB                  24.06.29924.00.0000.980.960                                   
BQ    皖曹店G337.0BB                  25.58.31325.50.0000.980.960                                   
.-------------------------------------------------------------------------
.BQ    皖万寿G037.0CN                  25.02.08915.00.0000.980.960                                   
.BQ    皖万寿G137.0CN                  25.0.852615.00.0000.980.960                                   
.-------------------------------------------------------------------------
BQ    皖来安G137.0CN                  13.54.54413.50.0000.980.960                                   
BQ    皖来安G237.0CN                  15.07.97915.00.0000.980.960                                   
BQ    皖来安G337.0CN                  15.06.54315.00.0000.980.960                                   
BQ    皖来安G437.0CN                  15.07.62515.00.0000.980.960                                   
BQ    皖来安G537.0CN                  15.05.42615.00.0000.980.960                                   
BQ    皖来安G637.0CN                  15.03.12415.00.0000.980.960                                   
BQ    皖来安G737.0CN                  15.0.000015.00.0000.980.960                                   
BQ    皖来安G837.0CN                  15.0.000015.00.0000.980.960                                   
BQ    皖来安G937.0CN                  15.0.000015.00.0000.980.960                                   
BQ    皖来安GA37.0CN                  15.07.11415.00.0000.980.960                                   
BQ    皖来安GB37.0CN                  15.04.89015.00.0000.980.960                                   
BQ    皖来安GC37.0CN                  15.08.75015.00.0000.980.960                                   
BQ    皖来安GD37.0CN                  15.08.54215.00.0000.980.960                                   
BQ    皖来安GE37.0CN                  15.08.54215.00.0000.980.960                                   
BQ    皖来安GF37.0CN                  15.08.54215.00.0000.980.960                                   
.-------------------------------------------------------------------------
BQ    皖平圩_120.0CN10.985.159        630.548.8300.040.00.980.960                                   
BQ    皖平圩_220.0CN27.4812.92        630.549.6315.040.00.980.960                                   
BQ    皖平圩G020.0HN29.6213.92        640.593.6315.0.0000.980.960                                   
BQ    皖平圩G120.0HN30.8214.48        640.595.3315.0.0000.980.960                                   
.-------------------------------------------------------------------------
BQ    皖洛河_320.0CN15.867.453        300.278.5160.020.00.980.960                                   
BQ    皖洛河_420.0CN20.079.431        300.280.1160.020.00.980.960                                   
.-------------------------------------------------------------------------
BQ    皖洛河_218.0CN19.429.126        320.300.4160.040.00.980.960                                   
BQ    皖洛河_118.0CN21.8710.28        320.299.955.0040.00.980.960                                   
.-------------------------------------------------------------------------
BQ    皖田厂_520.0CN19.479.149        300.300.7160.020.00.980.960                                   
BQ    皖田厂_620.0CN24.0011.28        320.302.5160.020.00.980.960                                   
.-------------------------------------------------------------------------
.BQ    皖田厂_313.8CN                  138.91.0075.00.0000.980.960                                   
.BQ    皖田厂_413.8CN                  138.90.0075.00.0000.980.960                                   
.BQ    皖田厂_113.8CN                  120.     75.00.0000.980.960                                   
.BQ    皖田厂_213.8CN                  120.91.0075.00.0000.980.960                                   
.-------------------------------------------------------------------------
.BQ    皖新庄_110.5CN                  25.0     20.00.0000.980.960                                   
.BQ    皖新庄_310.5CN                  25.0     20.00.0000.980.960                                   
.BQ    皖新庄G010.5HN                  25.0     20.00.0000.980.960                                   
.-------------------------------------------------------------------------
.BQ    皖新庄G0115.CN                  25.0     20.00.0000.980.960                                   
.-------------------------------------------------------------------------
BQ    皖钱甸_113.8CN11.035.185        135.127.955.00.0000.980.960                                   
BQ    皖钱甸_213.8CN9.3434.391        135.124.555.00.0000.980.960                                   
.-------------------------------------------------------------------------
BQ    皖滨淮_213.8CN9.8964.651        135.123.060.00.0000.980.960                                   
.BQ    皖滨淮_113.8CN.0000.0000        135.     60.00.0000.980.960                                   
.-------------------------------------------------------------------------
.BQ    皖炉桥_120.0CN.0000.0000        300.     160.0.0000.980.960                                   
BQ    皖炉桥_220.0CN12.455.851        300.259.9160.0.0000.980.960                                   
.-------------------------------------------------------------------------
BQ    皖顾桥#220.0CN18.388.637        330.280.1160.0.0000.980.960                                   
BQ    皖顾桥#120.0CN17.108.036        330.289.5160.0.0000.980.960                                   
.-------------------------------------------------------------------------
.BQ    皖合厂_210.5CN                  125.     75.00.0000.980.960                                   
.-------------------------------------------------------------------------
BQ    皖合厂_620.0CN28.4213.36        630.500.775.00.0000.980.960                                   
.-------------------------------------------------------------------------
BQ    皖合厂_522.0CN28.7513.51        630.530.675.00.0000.980.960                                   
.-------------------------------------------------------------------------
.BQ    皖合厂G0230.CN                  120.     100.01.000.980.960                                   
.-------------------------------------------------------------------------
.BQ    皖合厂_313.8CN                  125.     75.00.0000.980.960                                   
.BQ    皖合厂_413.8CN                  125.     75.00.0000.980.960                                   
.-------------------------------------------------------------------------
.BQ    皖合厂_16.30CN                  125.     75.00.0000.980.960                                   
.-------------------------------------------------------------------------
BQ    皖合二_120.0CN16.227.625        350.329.2175.0.0000.980.960                                   
BQ    皖合二_220.0CN22.1010.39        350.351.1175.0.0000.980.960                                   
.-------------------------------------------------------------------------
.BQ    皖金热_16.30CN                  50.0     40.0040.00.980.960                                   
.BQ    皖金热_26.30CN                  50.0     40.00.0000.980.960                                   
.-------------------------------------------------------------------------
.BQ    皖合新_522.0CN                  630.530.6160.0.0000.980.960                                   
.-------------------------------------------------------------------------
.BQ    皖白莲G110.5LA                  25.026.2420.00.0000.980.960                                   
.BQ    皖白莲G010.5LA                  27.026.1620.00.0000.980.960                                   
.-------------------------------------------------------------------------
.BQ    皖响蓄_510.5CN-.004-.002        45.0     25.0012.00.980.960                                   
.BQ    皖响蓄_610.5CN-.004-.002        45.0     25.0012.00.980.960                                   
.-------------------------------------------------------------------------
BQ    皖华六_113.8CN9.8584.633        135.112.462.50.0000.980.960                                   
.BQ    皖华六_213.8CN.0000.0000        135.     62.50.0000.980.960                                   
.-------------------------------------------------------------------------
.BQ    皖梅山_110.5CN                  15.0     5.000.0000.980.960                                   
.BQ    皖梅山_210.5CN                  15.0     5.000.0000.980.960                                   
.BQ    皖梅山_310.5CN                  15.0     10.00.0000.980.960                                   
.BQ    皖梅山_410.5CN                  15.0     10.00.0000.980.960                                   
.-------------------------------------------------------------------------
.BQ    皖梅山G0115.CN                  40.0     40.00.0000.980.960                                   
.-------------------------------------------------------------------------
.BQ    皖响洪_110.5CN                  12.011.305.000.0000.980.960                                   
.BQ    皖响洪_210.5CN                  12.011.825.000.0000.980.960                                   
.BQ    皖响洪_310.5CN                  12.011.245.000.0000.980.960                                   
.BQ    皖响洪_410.5CN                  12.012.425.000.0000.980.960                                   
.-------------------------------------------------------------------------
.BQ    皖响洪G0115.CN                  12.0     5.000.0000.980.960                                   
.-------------------------------------------------------------------------
.BQ    皖佛子_710.5CN                  12.511.556.000.0000.980.960                                   
.BQ    皖佛子_610.5CN                  12.511.946.000.0000.980.960                                   
.-------------------------------------------------------------------------
.BQ    皖佛子G0115.CN                  40.011.606.000.0000.980.960                                   
.-------------------------------------------------------------------------
.BQ    皖佛子_16.30CN                  4.004.0972.000.0000.980.960                                   
.BQ    皖佛子_26.30CN                  4.004.2842.000.0000.980.960                                   
.BQ    皖佛子_36.30CN                  4.004.0102.000.0000.980.960                                   
.BQ    皖佛子_46.30CN                  1.301.380.7000.0000.980.960                                   
.BQ    皖佛子_56.30CN                  1.301.368.7000.0000.980.960                                   
.-------------------------------------------------------------------------
.BQ    皖磨子_1115.CN                  20.019.8020.00.0000.980.960                                   
.-------------------------------------------------------------------------
.BQ    皖居巢_320.0CN                  600.     160.0.0000.980.960                                   
.BQ    皖居巢_420.0CN                  600.     160.0.0000.980.960                                   
BQ    皖居巢_120.0CN35.0316.46        630.599.0160.0.0000.980.960                                   
BQ    皖居巢_220.0CN15.227.154        630.284.8160.0.0000.980.960                                   
.-------------------------------------------------------------------------
.BQ    皖西口G0.000AQ                  15.022.7515.00.0000.980.960                                   
.BQ    皖西口G1.000AQ                  15.016.1615.00.0000.980.960                                   
.BQ    皖西口G2.000AQ                  15.0     15.00.0000.980.960                                   
.BQ    皖西口G3.000AQ                  15.0     15.00.0000.980.960                                   
.-------------------------------------------------------------------------
.BQ    皖山口_110.5CN                  320.     160.0.0000.980.960                                   
.BQ    皖山口_210.5CN                  320.5.992160.0.0000.980.960                                   
.-------------------------------------------------------------------------
.BQ    皖毛尖_16.30CN                  12.515.626.000.0000.980.960                                   
.BQ    皖毛尖_26.30CN                  12.515.666.000.0000.980.960                                   
.-------------------------------------------------------------------------
.BQ    皖安热_315.7CN23.4711.03        60.047.9935.00.0000.980.960                                   
.BQ    皖安热_215.7CN23.9611.26        50.030.4325.00.0000.980.960                                   
.BQ    皖安热_415.7CN.0000.0000        60.0     35.00.0000.980.960                                   
.BQ    皖安热_515.7AQ10.124.757        60.048.2435.00.0000.980.960                                   
.-------------------------------------------------------------------------
BQ    皖安厂_120.0CN11.185.257        320.299.8160.0.0000.980.960                                   
BQ    皖安厂_220.0CN14.566.843        320.312.1160.0.0000.980.960                                   
.-------------------------------------------------------------------------
.BQ    皖马二_220.0CS.0000.0000        330..0001160.020.00.980.960                                   
BQ    皖马二_120.0CS25.6712.06        330.320.9160.020.00.980.960                                   
BQ    皖马二_320.0CS19.359.093        330.292.7180.0-70.0.980.960                                   
BQ    皖马二_420.0CS14.356.743        330.289.0180.0-70.0.980.960                                   
.-------------------------------------------------------------------------
.BQ    皖马热_1115.CS                  60.057.0040.00.0000.980.960                                   
.BQ    皖马热_2115.CS                  60.057.6040.00.0000.980.960                                   
.BQ    皖马热_3115.CS                  60.056.0040.00.0000.980.960                                   
.BQ    皖马热_4115.CS                  50.045.7040.00.0000.980.960                                   
.BQ    皖马热G0115.CS                  230.170.6230.0.0000.980.960                                   
.-------------------------------------------------------------------------
BQ    皖马一_120.0CS27.8313.08        660.567.370.0050.00.980.960                                   
BQ    皖马一_220.0CS30.2214.20        660.565.870.0050.00.980.960                                   
.-------------------------------------------------------------------------
BQ    皖塘岔_D10.5CS5.0002.350        60.052.0060.0010.00.980.960                                   
BQ    皖塘岔1110.5CS5.0002.350        150.128.060.00.0000.980.960                                   
BQ    皖塘岔1210.5CS10.004.700        135.140.060.00.0000.980.960                                   
.-------------------------------------------------------------------------
BQ    皖新桥_220.0CN29.3313.78        660.656.0300.0-200..980.960                                   
BQ    皖新桥_120.0CN.0000.0000        660.656.0300.0-200..980.960                                   
.-------------------------------------------------------------------------
.BQ    皖天门_122.0CS.0000.0000        660.     250.0.0000.980.960                                   
BQ    皖天门_222.0CS33.5015.75        660.650.0250.0.0000.980.960                                   
.-------------------------------------------------------------------------
BQ    皖团洲_122.0CS31.7214.91        660.648.8315.050.00.980.960                                   
BQ    皖团洲_222.0CS30.0814.14        660.656.3315.050.00.980.960                                   
.-------------------------------------------------------------------------
.BQ    皖芜湖1413.8CS.0000.0000        125.     70.00.0000.980.960                                   
.BQ    皖芜湖1313.8CS.0000.0000        125.     70.00.0000.980.960                                   
.BQ    皖芜湖1213.8CS                  125.     70.00.0000.980.960                                   
.BQ    皖芜湖1113.8CS                  125.     70.00.0000.980.960                                   
.-------------------------------------------------------------------------
BQ    皖铜陵_320.0CS15.577.319        320.249.9160.020.00.980.960                                   
BQ    皖铜陵_420.0CS19.409.116        320.249.9160.020.00.980.960                                   
.-------------------------------------------------------------------------
BQ    皖铜陵_527.0CS48.6222.85        10501003.500.0-200..980.960                                   
.-------------------------------------------------------------------------
.BQ    皖铜陵_113.8CS                  125.100.070.00.0000.980.960                                   
.BQ    皖铜陵_213.8CS                  125.104.070.00.0000.980.960                                   
.-------------------------------------------------------------------------
BQ    皖永丰_120.0CS35.2916.59        630.609.4300.050.00.980.960                                   
BQ    皖永丰_220.0CS34.0416.00        630.607.0300.050.00.980.960                                   
.-------------------------------------------------------------------------
.BQ    皖宣城_120.0CS.0000.0955        600.     160.050.00.980.960                                   
.-------------------------------------------------------------------------
.BQ    皖港口_110.5CS                  30.030.2415.00.0000.980.960                                   
.BQ    皖港口_210.5CS                  30.0     15.00.0000.980.960                                   
.-------------------------------------------------------------------------
.BQ    皖港口G0115.CS                  60.0     15.00.0000.980.960                                   
.-------------------------------------------------------------------------
.BQ    皖纪村_110.5CS                  17.014.148.500.0000.980.960                                   
.BQ    皖纪村_210.5CS                  17.013.648.500.0000.980.960                                   
.-------------------------------------------------------------------------
.BQ    皖纪村G0115.CS                  34.0     8.500.0000.980.960                                   
.-------------------------------------------------------------------------
.BQ    皖陈村_210.5CS.0000.0000        50.0     25.00.0000.980.960                                   
BQ    皖陈村_310.5CS2.6351.238        50.052.6925.00.0000.980.960                                   
.-------------------------------------------------------------------------
BQ    皖陈村_115.7CS2.4011.128        50.048.0125.00.0000.980.960                                   
.BQ    皖陈村_415.7CS.0000.0000        30.0     15.00.0000.980.960                                   
.-------------------------------------------------------------------------
.BQ    皖贵池G0115.CS                  50.0     50.00.0000.980.960                                   
.-------------------------------------------------------------------------
.BQ    皖贵池_115.7CS                  25.0     12.50.0000.980.960                                   
.BQ    皖贵池_215.7CS                  25.0     12.50.0000.980.960                                   
.-------------------------------------------------------------------------
BQ    皖九华_120.0CS17.868.394        320.319.6160.020.00.980.960                                   
BQ    皖九华_220.0CS17.668.301        320.309.5150.020.00.980.960                                   
.-------------------------------------------------------------------------
.
.*******************************************************************************
.===============================安徽母线节点====================================
.*******************************************************************************
B     皖五里Ⅰ230.HB61.504.824                                                  227.58              
B     皖五里Ⅱ230.HB85.6212.19                                                  227.83              
B     皖显通Ⅱ230.HB99.1921.01                                                  225.73              
B     皖显通Ⅰ230.HB71.3818.08                                                  225.43              
B     皖杨柳Ⅰ230.HB66.315.224                                                  225.74              
B     皖杨柳Ⅱ230.HB73.942.143                                                  225.54              
B     皖纵楼Ⅰ230.HB61.292.277                                                  225.66              
B     皖纵楼Ⅱ230.HB64.9112.66                                                  224.50              
.B     皖淮北H1115.HB-114.-114.                                                                      
B     皖南坪Ⅱ230.HB67.7823.78                                                  227.13              
B     皖南坪Ⅰ230.HB90.4221.57                                                  227.97              
B     皖虹乡Ⅱ230.SZ85.8219.50                                                  225.52              
B     皖桃沟_2230.SZ11.00-19.0                                                  .00000              
B     皖双庆Ⅰ230.SZ128.631.93                                                  229.32              
B     皖马井Ⅱ230.SZ109.923.68                                                  223.50              
B     皖马井Ⅰ230.SZ65.677.595                                                  223.50              
B     皖沱河Ⅱ230.SZ61.009.000                                                  230.00              
B     皖沱河Ⅰ230.SZ29.004.000                                                  230.00              
B     皖刘尧Ⅱ230.SZ34.7010.85                                                  227.33              
B     皖刘尧Ⅰ230.SZ61.226.564                                                  226.05              
B     皖姬村Ⅰ230.SZ75.7216.10                                                  229.46              
B     皖姬村Ⅱ230.SZ59.195.438                                                  228.80              
.B     皖汇源H2230.SZ-82.5-15.6                                                                      
B     皖陇海Ⅱ230.SZ115.018.31                                                  222.61              
B     皖薛桥Ⅱ230.FY7.593.0000                                                  226.28              
B     皖东庄Ⅱ230.FY29.008.300                                                  222.38              
B     皖东庄Ⅰ230.FY65.406.400                                                  222.50              
.B     皖正午Ⅰ230.FY9.1091.250                                                  229.77              
B     皖阜阳Ⅰ230.FY110.843.54                                                  227.92              
B     皖阜阳Ⅱ230.FY127.738.85                                                  227.85              
B     皖程集Ⅰ230.FY86.6318.53                                                  225.53              
B     皖牛庄Ⅱ230.FY115.723.13                                                  221.57              
B     皖牛庄Ⅰ230.FY111.518.22                                                  221.44              
B     皖邢集Ⅱ230.FY80.4921.56                                                  222.78              
B     皖邢集Ⅰ230.FY99.4422.10                                                  225.47              
B     皖花园Ⅱ230.FY71.0226.26                                                  226.82              
B     皖花园Ⅰ230.FY76.1117.42                                                  226.56              
B     皖白果Ⅱ230.FY142.026.52                                                  223.36              
B     皖徐寨Ⅱ230.FY139.844.65                                                  223.20              
B     皖太和Ⅰ230.FY85.476.264                                                  224.70              
B     皖太和Ⅱ230.FY84.6327.84                                                  224.12              
B     皖涡阳Ⅰ230.BZ54.799.712                                                  225.42              
B     皖涡阳Ⅱ230.BZ76.7619.56                                                  225.16              
B     皖蒙城Ⅱ230.BZ62.043.484                                                  225.84              
B     皖蒙城Ⅰ230.BZ78.5215.27                                                  225.90              
B     皖谯城Ⅱ230.BZ75.377.973                                                  221.20              
B     皖谯城Ⅰ230.BZ91.38.1340                                                  220.87              
B     皖焦楼Ⅱ230.BZ45.012.009                                                  225.42              
B     皖焦楼Ⅰ230.BZ50.102.947                                                  224.97              
B     皖茨淮Ⅱ230.BZ63.806.433                                                  225.70              
B     皖茨淮Ⅰ230.BZ80.41-3.22                                                  225.44              
B     皖魏武Ⅱ230.BZ131.619.18                                                  220.48              
B     皖蚌东Ⅱ230.BB43.863.037                                                  227.19              
B     皖蚌东Ⅰ230.BB77.5821.71                                                  227.71              
B     皖高湖Ⅰ230.BB69.7012.47                                                  226.66              
B     皖高湖Ⅱ230.BB49.33.0000                                                  226.92              
B     皖秦集Ⅱ230.BB57.004.689                                                  227.58              
B     皖秦集Ⅰ230.BB74.354.019                                                  227.39              
B     皖凤阳Ⅰ230.BB71.8122.57                                                  227.84              
B     皖凤阳Ⅱ230.BB84.2632.29                                                  227.26              
B     皖燕山Ⅱ230.BB71.889.655                                                  227.98              
B     皖燕山Ⅰ230.BB43.0112.33                                                  227.85              
B     皖涂山Ⅱ230.BB73.663.217                                                  227.37              
B     皖钟阳Ⅰ230.BB98.4520.35                                                  227.82              
B     皖蒋南Ⅰ230.BB39.656.655                                                  228.76              
B     皖固镇Ⅱ230.BB20.90-6.88                                                  226.82              
B     皖李楼Ⅱ230.BB21.50.0000                                                  .00000              
B     皖官塘Ⅰ230.BB91.4315.22                                                  227.61              
B     皖陈桥Ⅰ230.BB42.4210.33                                                  226.75              
B     皖天长Ⅱ230.CZ84.696.890                                                  224.82              
B     皖天长Ⅰ230.CZ16.793.345                                                  226.05              
B     皖滁县Ⅱ230.CZ73.415.760                                                  228.53              
B     皖滁县Ⅰ230.CZ60.559.511                                                  227.63              
B     皖定远Ⅱ230.CZ77.498.709                                                  227.70              
B     皖定远Ⅰ230.CZ40.871.742                                                  227.96              
B     皖建阳Ⅰ230.CZ78.639.109                                                  226.95              
B     皖建阳Ⅱ230.CZ45.68-1.34                                                  227.27              
B     皖黄栗Ⅰ230.CZ77.8814.44                                                  228.04              
.B     皖华兴Ⅰ230.CZ-3.00.0000                                                  .00000              
B     皖华兴Ⅱ230.CZ6.625.0000                                                  .00000              
B     皖宝桥Ⅰ230.CZ54.5211.25                                                  227.07              
B     皖宝桥Ⅱ230.CZ78.59-5.18                                                  227.07              
B     皖千秋Ⅱ230.CZ71.91.0000                                                  226.04              
B     皖千秋Ⅰ230.CZ48.11.0000                                                  226.88              
B     皖桑涧01230.CZ23.54.0000                                                  .00000              
B     皖深秀Ⅰ230.CZ51.442.679                                                  227.96              
B     皖嘉山Ⅱ230.CZ54.4010.52                                                  226.23              
B     皖嘉山Ⅰ230.CZ23.18-.737                                                  225.84              
.B     皖田厂H1230.HN-91.0.0000                                                                      
.B     皖田厂H2230.HN-92.0.0000                                                                      
.B     皖田厂H3230.HN-92.0.0000                                                                      
.B     皖田厂H4230.HN-92.0.0000                                                                      
B     皖西山Ⅰ230.HN51.0014.61                                                  225.95              
B     皖西山Ⅱ230.HN64.8010.25                                                  226.08              
B     皖八公Ⅱ230.HN58.0616.08                                                  227.00              
B     皖八公Ⅰ230.HN17.554.154                                                  227.06              
B     皖金家Ⅱ230.HN57.68-.201                                                  226.61              
B     皖金家Ⅰ230.HN70.8814.14                                                  228.72              
B     皖芦集Ⅱ230.HN28.078.576                                                  227.26              
B     皖芦集Ⅰ230.HN23.25.0000                                                  227.39              
B     皖洛变Ⅰ230.HN77.1824.32                                                  230.00              
B     皖洛变Ⅱ230.HN34.037.705                                                  230.11              
B     皖张集Ⅱ230.HN53.2716.88                                                  226.80              
B     皖张集Ⅰ230.HN90.8527.60                                                  225.90              
B     皖丁集Ⅰ230.HN66.0414.60                                                  226.74              
B     皖丁集Ⅱ230.HN56.2613.04                                                  226.94              
B     皖古沟Ⅱ230.HN34.003.000                                                  228.00              
B     皖古沟Ⅰ230.HN47.0011.00                                                  228.00              
B     皖辛东Ⅱ230.HN61.9914.83                                                  226.75              
B     皖辛东Ⅰ230.HN42.602.679                                                  227.07              
B     皖炉桥Ⅱ230.HN74.6738.66                                                  227.64              
B     皖炉桥Ⅰ230.HN87.3877.19                                                  227.64              
.B     皖合厂H0230.HF54.00.0000                                                                      
B     皖莲花Ⅰ230.HF82.2530.01                                                  228.74              
B     皖莲花Ⅱ230.HF73.8120.83                                                  229.32              
B     皖螺丝Ⅱ230.HF190.523.18                                                  227.32              
B     皖永青Ⅰ230.HF96.1510.02                                                  228.94              
B     皖永青Ⅱ230.HF77.714.288                                                  229.58              
B     皖东郊Ⅱ230.HF37.3613.66                                                  229.06              
B     皖东郊Ⅰ230.HF63.0612.66                                                  228.80              
B     皖桥头Ⅰ230.HF4.4404.287                                                  230.36              
B     皖桥头Ⅱ230.HF21.177.100                                                  230.03              
B     皖振宁Ⅰ230.HF76.828.712                                                  229.24              
B     皖振宁Ⅱ230.HF60.726.864                                                  229.02              
B     皖贾郢Ⅱ230.HF77.9916.17                                                  227.96              
B     皖贾郢Ⅰ230.HF61.625.760                                                  227.70              
B     皖竹溪Ⅱ230.HF98.894.288                                                  228.81              
B     皖竹溪Ⅰ230.HF60.309.246                                                  228.75              
B     皖秋蒲Ⅱ230.HF84.805.358                                                  229.14              
B     皖秋蒲Ⅰ230.HF50.506.028                                                  229.14              
B     皖紫云Ⅰ230.HF252.455.37                                                  226.75              
B     皖龙城Ⅰ230.HF5.894.0000                                                  .00000              
B     皖游乐Ⅰ230.HF92.1726.29                                                  228.09              
B     皖游乐Ⅱ230.HF73.445.440                                                  228.21              
B     皖陶楼Ⅰ230.HF79.839.451                                                  227.96              
B     皖陶楼Ⅱ230.HF93.0922.12                                                  227.96              
B     皖植物Ⅰ230.HF61.547.194                                                  228.69              
B     皖植物Ⅱ230.HF67.7217.06                                                  228.71              
B     皖富邦Ⅱ230.HF65.774.933                                                  228.22              
B     皖富邦Ⅰ230.HF103.57.912                                                  227.58              
B     皖滨湖Ⅰ230.HF76.363.815                                                  228.83              
B     皖滨湖Ⅱ230.HF52.951.814                                                  228.71              
B     皖常青Ⅱ230.HF85.24.0000                                                  228.54              
B     皖常青Ⅰ230.HF109.910.19                                                  228.54              
B     皖板桥Ⅱ230.HF53.0410.39                                                  229.68              
B     皖板桥Ⅰ230.HF47.877.175                                                  229.61              
B     皖邵岗01230.HF15.77-3.66                                                  .00000              
B     皖杜岗Ⅱ230.HF9.9852.077                                                  229.05              
B     皖彭郢Ⅰ230.HF14.96.0000                                                  227.84              
B     皖彭郢Ⅱ230.HF22.337.593                                                  227.84              
B     皖撮镇Ⅰ230.HF37.581.056                                                  228.31              
B     皖撮镇Ⅱ230.HF47.7017.16                                                  228.67              
B     皖云谷Ⅰ230.HF61.732.612                                                  227.03              
B     皖云谷Ⅱ230.HF29.745.137                                                  226.99              
B     皖庐江Ⅱ230.HF64.0011.00                                                  226.00              
B     皖庐江Ⅰ230.HF67.0012.00                                                  225.00              
B     皖巢湖Ⅱ230.HF51.1812.60                                                  228.22              
B     皖巢湖Ⅰ230.HF29.889.647                                                  228.28              
.B     皖巢湖H2230.HF249.0100.0                                                                      
B     皖旗山Ⅱ230.HF61.4013.64                                                  227.83              
B     皖旗山Ⅰ230.HF48.9714.82                                                  227.75              
B     皖庙集Ⅱ230.HF34.221.930                                                  228.21              
B     皖绣溪Ⅱ230.HF36.767.929                                                  228.43              
B     皖鑫晟Ⅰ230.HF6.834.0000                                                  228.72              
B     皖鑫晟Ⅱ230.HF11.262.546                                                  228.97              
B     皖蓼城Ⅰ230.LA68.0025.00                                                  225.00              
B     皖蓼城Ⅱ230.LA43.00-8.00                                                  226.00              
B     皖寿州Ⅱ230.LA61.1911.39                                                  223.78              
B     皖寿州Ⅰ230.LA42.999.826                                                  223.26              
B     皖红石Ⅰ230.LA-42.416.09                                                  230.39              
.B     皖马店00230.LA3.217.0000                                                  .00000              
B     皖墩义00230.LA5.898.0000                                                  .00000              
.B     皖裕安00230.LA4.020.0000                                                  .00000              
.B     皖白莲H1115.LA-51.82.605                                                                      
B     皖崔庄Ⅰ230.LA86.026.938                                                  229.69              
B     皖冯井Ⅱ230.LA46.757.720                                                  225.94              
B     皖汪墩Ⅱ230.LA47.446.234                                                  228.36              
.B     皖响洪H1115.LA21.812.079                                                                      
.B     皖响洪H2115.LA23.203.398                                                                      
.B     皖佛子H2115.LA6.644.6600                                                                      
.B     皖佛子H1115.LA8.184-.088                                                                      
.B     皖佛子H3115.LA22.843.696                                                                      
.B     皖磨子H1115.LA20.021.628                                                                      
.B     皖磨子H2115.LA15.14-1.63                                                                      
B     皖六安Ⅰ230.LA54.809.112                                                  229.38              
B     皖六安Ⅱ230.LA76.2420.90                                                  228.67              
B     皖挥手Ⅰ230.LA-7.10-4.69                                                  227.51              
B     皖挥手Ⅱ230.LA49.71-1.74                                                  227.64              
B     皖春秋Ⅰ230.LA59.2310.72                                                  227.98              
B     皖春秋Ⅱ230.LA13.9417.96                                                  227.98              
B     皖文峰Ⅱ230.LA-85.87.228                                                  230.40              
B     皖香泉Ⅱ230.CH28.957.077                                                  228.15              
B     皖香泉Ⅰ230.CH56.2911.39                                                  227.63              
B     皖西梁Ⅱ230.CH33.895.627                                                  227.40              
B     皖西梁Ⅰ230.CH50.2323.58                                                  227.40              
B     皖含山Ⅱ230.CH80.7818.22                                                  229.94              
B     皖含山Ⅰ230.CH63.3816.85                                                  228.63              
B     皖无为Ⅱ230.CH52.906.026                                                  228.40              
B     皖无为Ⅰ230.CH50.5013.06                                                  226.72              
B     皖邓村Ⅱ230.AQ62.7522.27                                                  227.98              
.B     皖山口H2115.AQ4.6212.831                                                                      
B     皖天柱Ⅰ230.AQ-79.9.0000                                                  228.66              
B     皖黎河Ⅱ230.AQ15.14-2.14                                                  227.70              
B     皖独秀Ⅱ230.AQ50.794.958                                                  228.68              
B     皖独秀Ⅰ230.AQ59.3613.00                                                  228.93              
B     皖石牌Ⅰ230.AQ58.0513.64                                                  227.26              
B     皖石牌Ⅱ230.AQ71.2811.69                                                  227.45              
B     皖龙山Ⅰ230.AQ88.8718.94                                                  229.88              
B     皖龙山Ⅱ230.AQ62.9512.81                                                  229.88              
B     皖会宫Ⅱ230.AQ64.069.469                                                  227.64              
B     皖会宫Ⅰ230.AQ74.2515.46                                                  227.77              
B     皖安庆Ⅱ230.AQ113.612.53                                                  229.35              
B     皖安庆Ⅰ230.AQ114.238.59                                                  228.68              
B     皖桐城Ⅱ230.AQ45.707.795                                                  228.10              
B     皖桐城Ⅰ230.AQ38.986.989                                                  228.10              
.B     皖安热H2115.AQ12.3511.14                                                                      
.B     皖安热H3115.AQ-19.3-4.53                                                                      
.B     皖安热H5115.AQ-38.1-15.8                                                                      
B     皖高炉Ⅱ230.MA24.12-9.65                                                  228.15              
B     皖高炉Ⅰ230.MA-9.65.0000                                                  228.02              
B     皖热轧H1230.MA32.163.082                                                                      
B     皖上湖Ⅱ230.MA57.8712.66                                                  227.29              
B     皖上湖Ⅰ230.MA58.4623.77                                                  227.29              
B     皖长龙Ⅱ230.MA76.4712.39                                                  227.55              
B     皖长龙Ⅰ230.MA46.473.884                                                  227.61              
B     皖采石Ⅱ230.MA89.1720.90                                                  227.89              
B     皖采石Ⅰ230.MA63.785.963                                                  227.89              
B     皖刘村72230.MA62.5113.40                                                                      
B     皖刘村61230.MA69.8110.05                                                                      
.B     皖马热H4115.MA41.2016.00                                                                      
.B     皖马热H3115.MA52.6016.40                                                                      
.B     皖马热H2115.MA47.6011.30                                                                      
.B     皖马热H1115.MA51.1018.30                                                                      
B     皖临江Ⅰ230.MA33.9210.72                                                  228.42              
B     皖临江Ⅱ230.MA30.2713.34                                                  228.21              
B     皖荷潭Ⅱ230.MA142.660.04                                                  227.63              
B     皖围屏Ⅱ230.MA35.056.140                                                  228.43              
B     皖围屏Ⅰ230.MA65.3117.86                                                  227.85              
B     皖园水Ⅰ230.MA33.4912.95                                                  228.82              
B     皖阳湖Ⅰ230.MA52.9418.09                                                  228.40              
B     皖塘岔Ⅱ115.MA37.0010.00                                                  115.00              
B     皖塘岔Ⅰ115.MA74.0019.00                                                  115.00              
B     皖苏李Ⅰ230.MA51.6022.70                                                  228.60              
B     皖恒兴Ⅰ230.MA83.394.957                                                  228.41              
B     皖恒兴2B230.MA69.8620.50                                                  228.41              
B     皖钢轧Ⅰ230.MA94.2616.86                                                  229.20              
B     皖钢轧Ⅱ230.MA55.508.489                                                  228.68              
B     皖章塘Ⅱ230.MA33.449.570                                                  228.55              
B     皖港西Ⅰ230.WH65.23-.867                                                  228.19              
B     皖港西Ⅱ230.WH72.1413.20                                                  228.29              
B     皖盛桥Ⅰ230.WH45.3512.22                                                  228.66              
B     皖盛桥Ⅱ230.WH39.40.0000                                                  228.79              
B     皖易太Ⅱ230.WH47.96-7.15                                                  228.09              
B     皖易太Ⅰ230.WH71.9215.71                                                  228.67              
B     皖瑞丰Ⅱ230.WH237.872.72                                                  227.78              
B     皖瑞丰Ⅰ230.WH68.661.675                                                  227.91              
B     皖库山Ⅱ230.WH46.28-.201                                                  229.98              
B     皖库山Ⅰ230.WH134.434.83                                                  229.52              
B     皖师专Ⅱ230.WH54.8620.33                                                  227.79              
B     皖师专Ⅰ230.WH85.3221.46                                                  227.00              
B     皖火龙Ⅱ230.WH103.326.15                                                  228.31              
B     皖火龙Ⅰ230.WH65.195.426                                                  228.34              
B     皖响水Ⅱ525.WH-114..0000                                                  505.93              
B     皖响水Ⅰ525.WH-116.6.252                                                  505.93              
B     皖月桥Ⅰ230.WH107.033.63                                                  229.09              
B     皖月桥Ⅱ230.WH77.5124.71                                                  229.09              
B     皖通江Ⅰ230.WH62.9521.27                                                  226.93              
B     皖繁南Ⅱ230.WH63.5126.66                                                  230.17              
B     皖繁南Ⅰ230.WH47.905.963                                                  230.17              
B     皖鸠江Ⅱ230.WH105.315.67                                                  227.78              
B     皖鸠江Ⅰ230.WH93.10-1.14                                                  227.65              
.B     皖铜陵H1230.TL-92.0-20.8                                                                      
.B     皖铜陵H2230.TL-95.7-20.4                                                                      
B     皖顺安Ⅰ230.TL60.7512.10                                                  228.62              
B     皖周冲Ⅱ230.TL37.004.000                                                  229.00              
B     皖周冲Ⅰ230.TL78.0023.00                                                  229.00              
B     皖朱村Ⅱ230.TL58.698.575                                                  229.77              
B     皖朱村Ⅰ230.TL60.2810.25                                                  229.97              
B     皖董店Ⅰ230.TL78.0022.00                                                  229.00              
B     皖古圣Ⅱ230.TL78.1729.81                                                  230.30              
B     皖古圣Ⅰ230.TL21.973.215                                                  229.21              
B     皖滨江Ⅱ230.TL74.538.404                                                  228.98              
B     皖滨江Ⅰ230.TL88.1118.06                                                  228.76              
B     皖新江Ⅱ230.TL89.9926.75                                                  229.71              
B     皖新江Ⅰ230.TL67.147.940                                                  229.51              
.B     皖港口H1115.XC29.853.040                                                                      
.B     皖纪村H2115.XC7.265.8383                                                                      
.B     皖纪村H1115.XC13.801.760                                                                      
B     皖陈村Ⅱ115.XC27.7713.20                                                  .00000              
B     皖陈村Ⅰ115.XC-6.55-4.65                                                  117.51              
B     皖东津Ⅰ230.XC48.356.811                                                  222.03              
B     皖琴溪Ⅱ230.XC19.0011.00                                                  227.00              
B     皖昌明Ⅱ230.XC27.619.650                                                  224.92              
B     皖昌明Ⅰ230.XC55.754.825                                                  224.02              
B     皖南漪Ⅱ230.XC94.8521.70                                                  225.46              
B     皖雄路Ⅱ230.XC81.8710.72                                                  222.70              
B     皖枣园Ⅰ230.XC62.0019.00                                                  221.00              
B     皖桃州Ⅰ230.XC96.77-3.13                                                  223.21              
B     皖宁国Ⅰ230.XC25.467.101                                                  223.60              
B     皖宁国Ⅱ230.XC92.7927.33                                                  223.40              
B     皖梅丰Ⅱ230.XC51.054.833                                                  224.10              
B     皖梅丰1A230.XC40.233.059                                                  224.03              
B     皖凤凰Ⅰ230.XC67.8521.12                                                  224.40              
B     皖凤凰Ⅱ230.XC63.62-11.6                                                  223.74              
B     皖莲塘Ⅰ230.XC141.051.00                                                  225.00              
B     皖蓉城Ⅱ230.GC75.638.987                                                  228.72              
B     皖菊江Ⅱ230.GC100.313.26                                                  227.58              
B     皖观牛Ⅱ230.GC48.88-6.43                                                  226.92              
B     皖双龙Ⅱ230.GC34.291.429                                                  229.72              
B     皖灯塔Ⅰ230.GC99.2725.30                                                  227.94              
B     皖池州Ⅱ230.GC48.297.568                                                  228.61              
B     皖池州Ⅰ230.GC41.732.009                                                  229.59              
B     皖枫岭Ⅱ230.GC70.2410.21                                                  229.53              
B     皖芳村Ⅱ230.HS64.45-1.08                                                  223.85              
B     皖万安Ⅱ230.HS60.0011.14                                                  224.48              
B     皖万安Ⅰ230.HS66.9615.87                                                  224.35              
B     皖潜口Ⅱ230.HS62.8614.97                                                  223.54              
B     皖潜口Ⅰ230.HS71.846.109                                                  223.80              
.
.*******************************************************************************
.===============================安徽省各地区======================================
.*******************************************************************************
B     皖五里B2230.HB                                                                                
B     皖五里B1230.HB                                                                                
B     皖五里L137.0HB                                                                                
B     皖五里L237.0HB                                                                                
B     皖五里M1115.HB                                                                                
B     皖五里M2115.HB                                                                                
.B     皖五里PC230.HB                                                            .00000              
.L     皖五里PC230. 皖五里Ⅱ230.1      .00000.00010                                                                      
L     皖五里Ⅰ230. 皖五里Ⅱ230.1      .00000.00010                                                                      
.L     皖五里Ⅰ230. 皖五里PC230.1      .00000.00010                                                                      
B     皖显通B1230.HB                                                                                
B     皖显通B2230.HB                                                                                
...